data_genice_CS1
#
#[A15] Frank, F.C., and JS Kasper. “Complex Alloy Structures Regarded as Sphere Packings. II. Analysis and Classification of Representative Structures.” Acta Crystallographica 12.7 (1959): 483–499.
#[sI] Jeffrey, G A. “Hydrate Inclusion Compounds.” Inclusion Compounds 1 (1984): 135–190.
#[CS1] Kosyakov, Viktor I, and T M Polyanskaya. “Using Structural Data for Estimating the Stability of Water Networks in Clathrate and Semiclathrate Hydrates.” Journal of Structural Chemistry 40.2 (1999): 239–245.
#[MEP] http://www.iza-structure.org/databases/
#
_cell_length_a                12.003488636143597
_cell_length_b                12.003488636143597
_cell_length_c                24.006977272287195
_cell_angle_alpha             90.0
_cell_angle_beta              90.0
_cell_angle_gamma             90.0

_symmetry_cell_setting        'orthorhombic'
_symmetry_space_group_name_H-M   'P 1 '

loop_
  _symmetry_equiv_pos_as_xyz
X,Y,Z

loop_
_atom_site_label
_atom_site_type_symbol
_atom_site_fract_x
_atom_site_fract_y
_atom_site_fract_z
    O0     O    0.8876    0.3085   -0.0018
    H1     H    0.8412    0.3733   -0.0013
    H2     H    0.8639    0.2659    0.0297
    O3     O    0.3122   -0.0036    0.0598
    H4     H    0.3113   -0.0023    0.0199
    H5     H    0.2685    0.0595    0.0705
    O6     O    0.0000    0.2554    0.2500
    H7     H    0.0000    0.2066    0.2185
    H8     H    0.0000    0.2066    0.2815
    O9     O    0.6817    0.3119    0.3421
   H10     H    0.7247    0.3391    0.3114
   H11     H    0.6610    0.3774    0.3623
   O12     O    0.1816    0.1778    0.0920
   H13     H    0.2274    0.2255    0.1142
   H14     H    0.1599    0.2230    0.0610
   O15     O    0.0038    0.7500    0.2519
   H16     H    0.0010    0.7945    0.2188
   H17     H   -0.0623    0.7055    0.2505
   O18     O    0.1778    0.8161    0.0908
   H19     H    0.2230    0.8781    0.0800
   H20     H    0.2255    0.7715    0.1137
   O21     O    0.4964    0.8085    0.1938
   H22     H    0.4975    0.8733    0.1706
   H23     H    0.5595    0.7659    0.1819
   O24     O    0.6195    0.4964    0.4061
   H25     H    0.5398    0.4977    0.4057
   H26     H    0.6410    0.5595    0.3842
   O27     O    0.8161    0.1816    0.4111
   H28     H    0.8781    0.1599    0.3885
   H29     H    0.7715    0.2274    0.3872
   O30     O    0.3159    0.3183    0.1559
   H31     H    0.3773    0.2753    0.1696
   H32     H    0.2754    0.3390    0.1887
   O33     O    0.1915    0.3876    0.2482
   H34     H    0.2341    0.3639    0.2797
   H35     H    0.1267    0.3412    0.2487
   O36     O    0.3159    0.6817    0.1559
   H37     H    0.2754    0.6610    0.1887
   H38     H    0.3773    0.7247    0.1696
   O39     O    0.3119    0.3159    0.3409
   H40     H    0.3391    0.3773    0.3623
   H41     H    0.3774    0.2754    0.3305
   O42     O    0.6915    0.0036    0.0562
   H43     H    0.6267    0.0025    0.0794
   H44     H    0.7341   -0.0595    0.0681
   O45     O    0.4964    0.1878    0.1902
   H46     H    0.4977    0.1887    0.2301
   H47     H    0.5595    0.2315    0.1795
   O48     O    0.8184    0.8222    0.0920
   H49     H    0.8401    0.7770    0.0610
   H50     H    0.7726    0.7745    0.1142
   O51     O    0.5036    0.8122    0.3098
   H52     H    0.5023    0.8113    0.2699
   H53     H    0.4405    0.7685    0.3205
   O54     O    0.8085    0.3876    0.2518
   H55     H    0.8733    0.3412    0.2513
   H56     H    0.7659    0.3639    0.2203
   O57     O    0.3085    0.0036    0.4438
   H58     H    0.3733    0.0025    0.4206
   H59     H    0.2659   -0.0595    0.4319
   O60     O    0.4964    0.1915    0.3062
   H61     H    0.5595    0.2341    0.3181
   H62     H    0.4975    0.1267    0.3294
   O63     O    0.3222    0.6816    0.3420
   H64     H    0.2770    0.6599    0.3110
   H65     H    0.2745    0.7274    0.3642
   O66     O    0.8805    0.6878    0.0018
   H67     H    0.8590    0.7315   -0.0298
   H68     H    0.9602    0.6887    0.0012
   O69     O    0.8183    0.8159    0.4059
   H70     H    0.8390    0.7754    0.4387
   H71     H    0.7753    0.8773    0.4196
   O72     O   -0.0036    0.1195    0.1561
   H73     H    0.0595    0.1410    0.1342
   H74     H   -0.0023    0.0398    0.1557
   O75     O    0.8159    0.1881    0.0909
   H76     H    0.8773    0.1609    0.1123
   H77     H    0.7754    0.1226    0.0805
   O78     O    0.8122    0.6195    0.2482
   H79     H    0.7685    0.6410    0.2798
   H80     H    0.8113    0.5398    0.2488
   O81     O    0.7500    0.4962    0.0019
   H82     H    0.7945    0.5623    0.0005
   H83     H    0.7055    0.4990   -0.0312
   O84     O    0.0036    0.8876    0.3458
   H85     H    0.0025    0.8412    0.3133
   H86     H   -0.0595    0.8639    0.3671
   O87     O    0.6839    0.6778    0.3408
   H88     H    0.6219    0.7230    0.3300
   H89     H    0.7285    0.7255    0.3637
   O90     O    0.5038   -0.0038    0.1250
   H91     H    0.5010    0.0623    0.1472
   H92     H    0.4377   -0.0010    0.1028
   O93     O   -0.0036    0.1195    0.3439
   H94     H    0.0595    0.1410    0.3658
   H95     H   -0.0023    0.0398    0.3443
   O96     O    0.1951    0.6188    0.2500
   H97     H    0.1227    0.6522    0.2500
   H98     H    0.1809    0.5403    0.2500
   O99     O    0.3862    0.5000    0.0927
  H100     H    0.3635    0.4369    0.1143
  H101     H    0.3635    0.5631    0.1143
  O102     O    0.3876    0.4964    0.4042
  H103     H    0.3639    0.5595    0.3829
  H104     H    0.3412    0.4975    0.4367
  O105     O    0.1778    0.1839    0.4092
  H106     H    0.2230    0.1219    0.4200
  H107     H    0.2255    0.2285    0.3863
  O108     O   -0.0000    0.8862    0.1573
  H109     H    0.0631    0.8635    0.1357
  H110     H   -0.0631    0.8635    0.1357
  O111     O    0.1138    0.6855   -0.0000
  H112     H    0.1365    0.7287    0.0315
  H113     H    0.1365    0.7287   -0.0315
  O114     O    0.1188    0.3049    0.0000
  H115     H    0.0403    0.3191    0.0000
  H116     H    0.1522    0.3773    0.0000
  O117     O    0.6816    0.3161    0.1611
  H118     H    0.7274    0.2715    0.1372
  H119     H    0.6599    0.3781    0.1385
  O120     O    0.6817    0.6881    0.1579
  H121     H    0.6610    0.6226    0.1377
  H122     H    0.7247    0.6609    0.1886
  O123     O    0.6188    0.5000    0.0976
  H124     H    0.6522    0.5000    0.0614
  H125     H    0.5403    0.5000    0.0904
  O126     O    0.1881    0.8183    0.4079
  H127     H    0.1609    0.7753    0.4386
  H128     H    0.1226    0.8390    0.3877
  O129     O    0.4962    0.0038    0.3750
  H130     H    0.5623    0.0010    0.3972
  H131     H    0.4990   -0.0623    0.3528
  O132     O    0.2500    0.4962   -0.0019
  H133     H    0.2945    0.4990    0.0312
  H134     H    0.2055    0.5623   -0.0005
  O135     O    0.6878   -0.0036    0.4402
  H136     H    0.7315    0.0595    0.4295
  H137     H    0.6887   -0.0023    0.4801
  O138     O    0.8805    0.3122    0.5018
  H139     H    0.8590    0.2685    0.4702
  H140     H    0.9602    0.3113    0.5012
  O141     O    0.3122   -0.0036    0.5598
  H142     H    0.2685    0.0595    0.5705
  H143     H    0.3113   -0.0023    0.5199
  O144     O    0.0038    0.2500    0.7481
  H145     H   -0.0623    0.2945    0.7495
  H146     H    0.0010    0.2055    0.7812
  O147     O    0.6816    0.3161    0.8389
  H148     H    0.6599    0.3781    0.8615
  H149     H    0.7274    0.2715    0.8628
  O150     O    0.1839    0.1816    0.5889
  H151     H    0.1219    0.1599    0.6115
  H152     H    0.2285    0.2274    0.6128
  O153     O    0.0000    0.7554    0.7500
  H154     H    0.0631    0.7066    0.7500
  H155     H   -0.0631    0.7066    0.7500
  O156     O    0.1841    0.8119    0.5909
  H157     H    0.1227    0.8391    0.6123
  H158     H    0.2246    0.8774    0.5805
  O159     O    0.5036    0.8085    0.6938
  H160     H    0.5025    0.8733    0.6706
  H161     H    0.4405    0.7659    0.6819
  O162     O    0.6195    0.4964    0.9061
  H163     H    0.5398    0.4977    0.9057
  H164     H    0.6410    0.5595    0.8842
  O165     O    0.8183    0.1841    0.9059
  H166     H    0.8390    0.2246    0.9387
  H167     H    0.7753    0.1227    0.9196
  O168     O    0.3119    0.3159    0.6591
  H169     H    0.3391    0.3773    0.6377
  H170     H    0.3774    0.2754    0.6695
  O171     O    0.1915    0.3876    0.7518
  H172     H    0.2341    0.3639    0.7203
  H173     H    0.1267    0.3412    0.7513
  O174     O    0.3222    0.6816    0.6580
  H175     H    0.2770    0.6599    0.6890
  H176     H    0.2745    0.7274    0.6358
  O177     O    0.3222    0.3184    0.8420
  H178     H    0.2770    0.3401    0.8110
  H179     H    0.2745    0.2726    0.8642
  O180     O    0.6915    0.0036    0.5562
  H181     H    0.7341   -0.0595    0.5681
  H182     H    0.6267    0.0025    0.5794
  O183     O    0.4964    0.1878    0.6902
  H184     H    0.4977    0.1887    0.7301
  H185     H    0.5595    0.2315    0.6795
  O186     O    0.8119    0.8183    0.5921
  H187     H    0.8391    0.7753    0.5614
  H188     H    0.8774    0.8390    0.6123
  O189     O    0.5000    0.8049    0.8094
  H190     H    0.5000    0.8191    0.7702
  H191     H    0.5000    0.8773    0.8261
  O192     O    0.8145    0.3862    0.7500
  H193     H    0.7713    0.3635    0.7185
  H194     H    0.7713    0.3635    0.7815
  O195     O    0.3085   -0.0036    0.9438
  H196     H    0.3733   -0.0025    0.9206
  H197     H    0.2659    0.0595    0.9319
  O198     O    0.5000    0.1855    0.8069
  H199     H    0.5631    0.2287    0.8182
  H200     H    0.4369    0.2287    0.8182
  O201     O    0.3119    0.6841    0.8409
  H202     H    0.3774    0.7246    0.8305
  H203     H    0.3391    0.6227    0.8623
  O204     O    0.8812    0.6951    0.5000
  H205     H    0.9597    0.6809    0.5000
  H206     H    0.8478    0.6227    0.5000
  O207     O    0.8161    0.8184    0.9111
  H208     H    0.7715    0.7726    0.8872
  H209     H    0.8781    0.8401    0.8885
  O210     O    0.0036    0.1124    0.6542
  H211     H    0.0025    0.1588    0.6867
  H212     H   -0.0595    0.1361    0.6329
  O213     O    0.8183    0.1841    0.5941
  H214     H    0.8390    0.2246    0.5613
  H215     H    0.7753    0.1227    0.5804
  O216     O    0.8122    0.6195    0.7518
  H217     H    0.7685    0.6410    0.7202
  H218     H    0.8113    0.5398    0.7512
  O219     O    0.7500    0.5038    0.5019
  H220     H    0.7945    0.4377    0.5005
  H221     H    0.7055    0.5010    0.4688
  O222     O   -0.0036    0.8876    0.8458
  H223     H    0.0595    0.8639    0.8671
  H224     H   -0.0025    0.8412    0.8133
  O225     O    0.6841    0.6817    0.8441
  H226     H    0.7246    0.6610    0.8113
  H227     H    0.6227    0.7247    0.8304
  O228     O    0.5038   -0.0038    0.6250
  H229     H    0.4377   -0.0010    0.6028
  H230     H    0.5010    0.0623    0.6472
  O231     O    0.0036    0.1195    0.8439
  H232     H   -0.0595    0.1410    0.8658
  H233     H    0.0023    0.0398    0.8443
  O234     O    0.1878    0.6195    0.7482
  H235     H    0.2315    0.6410    0.7798
  H236     H    0.1887    0.5398    0.7488
  O237     O    0.3805    0.4964    0.5939
  H238     H    0.3590    0.5595    0.6158
  H239     H    0.4602    0.4977    0.5943
  O240     O    0.3876    0.5036    0.9042
  H241     H    0.3412    0.5025    0.9367
  H242     H    0.3639    0.4405    0.8829
  O243     O    0.1881    0.1817    0.9079
  H244     H    0.1609    0.2247    0.9386
  H245     H    0.1226    0.1610    0.8877
  O246     O    0.0000    0.8812    0.6524
  H247     H    0.0000    0.8478    0.6886
  H248     H    0.0000    0.9597    0.6596
  O249     O    0.1124    0.6915    0.4982
  H250     H    0.1361    0.7341    0.5297
  H251     H    0.1588    0.6267    0.4987
  O252     O    0.1138    0.3145    0.5000
  H253     H    0.1365    0.2713    0.4685
  H254     H    0.1365    0.2713    0.5315
  O255     O    0.6816    0.3161    0.6611
  H256     H    0.7274    0.2715    0.6372
  H257     H    0.6599    0.3781    0.6385
  O258     O    0.6839    0.6778    0.6592
  H259     H    0.7285    0.7255    0.6363
  H260     H    0.6219    0.7230    0.6700
  O261     O    0.6124    0.4964    0.5958
  H262     H    0.6588    0.4975    0.5633
  H263     H    0.6361    0.5595    0.6171
  O264     O    0.1778    0.8161    0.9092
  H265     H    0.2230    0.8781    0.9200
  H266     H    0.2255    0.7715    0.8863
  O267     O    0.4962   -0.0038    0.8750
  H268     H    0.4990    0.0623    0.8528
  H269     H    0.5623   -0.0010    0.8972
  O270     O    0.2500    0.5038    0.4981
  H271     H    0.2055    0.4377    0.4995
  H272     H    0.2945    0.5010    0.5312
  O273     O    0.6878    0.0036    0.9402
  H274     H    0.7315   -0.0595    0.9295
  H275     H    0.6887    0.0023    0.9801
 Me276    Me    0.5000    0.5000    0.2500
G14277   G14    0.0000    0.5000    0.6250
G14278   G14    0.0000    0.5000    0.1250
G14279   G14    0.5000    0.2500    0.5000
G14280   G14    0.5000    0.7500    0.5000
G14281   G14    0.5000    0.2500    0.0000
G14282   G14    0.5000    0.7500    0.0000

