data_genice
#
#Data source: Dutour Sikirić, Mathieu, Olaf Delgado-Friedrichs, and Michel Deza. “Space Fullerenes: a Computer Search for New Frank-Kasper Structures” Acta Crystallographica Section A Foundations of Crystallography 66.Pt 5 (2010): 602–615.
#
#Cage composition:
# (12,14,15,16) = (16,0,0,8,)
#
_cell_length_a                18.028244506884196
_cell_length_b                18.028244506884196
_cell_length_c                36.05648901376839
_cell_angle_alpha             90.0
_cell_angle_beta              90.0
_cell_angle_gamma             90.0

_symmetry_cell_setting        'orthorhombic'
_symmetry_space_group_name_H-M   'P 1 '

loop_
  _symmetry_equiv_pos_as_xyz
X,Y,Z

loop_
_atom_site_label
_atom_site_fract_x
_atom_site_fract_y
_atom_site_fract_z
_atom_site_type_symbol
    O0    0.0618    0.6844    0.1866     O
    H1    0.0523    0.6962    0.2121     H
    H2    0.0834    0.7285    0.1766     H
    O3    0.3779    0.1860    0.2820     O
    H4    0.3514    0.1696    0.2605     H
    H5    0.3514    0.2290    0.2902     H
    O6    0.7212    0.0288    0.2662     O
    H7    0.6896    0.0604    0.2806     H
    H8    0.7094    0.0406    0.2410     H
    O9    0.5325    0.2212    0.2644     O
   H10    0.4820    0.2094    0.2703     H
   H11    0.5612    0.1896    0.2802     H
   O12    0.7163    0.5337    0.0150     O
   H13    0.7083    0.4823    0.0204     H
   H14    0.7677    0.5417    0.0204     H
   O15    0.4372    0.8091    0.3119     O
   H16    0.4800    0.8317    0.3228     H
   H17    0.4003    0.8473    0.3121     H
   O18    0.9372    0.6262    0.4704     O
   H19    0.9800    0.6044    0.4592     H
   H20    0.9003    0.6258    0.4513     H
   O21    0.3156    0.6233    0.1559     O
   H22    0.3038    0.6742    0.1511     H
   H23    0.2715    0.6032    0.1667     H
   O24    0.5288    0.7175    0.0144     O
   H25    0.5604    0.6888    0.0302     H
   H26    0.5406    0.7680    0.0203     H
   O27    0.8721    0.1860    0.3430     O
   H28    0.8986    0.1696    0.3645     H
   H29    0.8986    0.2290    0.3348     H
   O30    0.8721    0.6860    0.0930     O
   H31    0.8986    0.7290    0.0848     H
   H32    0.8986    0.6696    0.1145     H
   O33    0.9372    0.6238    0.1546     O
   H34    0.9800    0.6456    0.1658     H
   H35    0.9003    0.6242    0.1737     H
   O36    0.0591    0.0628    0.1869     O
   H37    0.0817    0.0200    0.1978     H
   H38    0.0973    0.0997    0.1871     H
   O39    0.0288    0.0288    0.1088     O
   H40    0.0406    0.0406    0.1340     H
   H41    0.0604    0.0604    0.0944     H
   O42    0.9390    0.4390    0.0611     O
   H43    0.9489    0.4489    0.0867     H
   H44    0.9015    0.4015    0.0614     H
   O45    0.3156    0.1267    0.2191     O
   H46    0.3038    0.0758    0.2239     H
   H47    0.2715    0.1468    0.2083     H
   O48    0.3118    0.6267    0.4672     O
   H49    0.3023    0.5758    0.4731     H
   H50    0.3334    0.6468    0.4893     H
   O51    0.5656    0.0618    0.4384     O
   H52    0.5538    0.0523    0.4129     H
   H53    0.5215    0.0834    0.4484     H
   O54    0.4382    0.9344    0.0616     O
   H55    0.4477    0.9462    0.0871     H
   H56    0.4166    0.9785    0.0516     H
   O57    0.2163    0.2163    0.1100     O
   H58    0.2677    0.2083    0.1046     H
   H59    0.2083    0.2677    0.1046     H
   O60    0.2163    0.7200    0.3582     O
   H61    0.2677    0.7091    0.3542     H
   H62    0.2083    0.7091    0.3838     H
   O63    0.0288    0.5325    0.3606     O
   H64    0.0406    0.4820    0.3547     H
   H65    0.0604    0.5612    0.3448     H
   O66    0.1279    0.3110    0.2195     O
   H67    0.0766    0.3011    0.2244     H
   H68    0.1273    0.3485    0.2007     H
   O69    0.6860    0.0640    0.1890     O
   H70    0.6696    0.0210    0.1757     H
   H71    0.7290    0.0804    0.1757     H
   O72    0.8733    0.0618    0.0922     O
   H73    0.8532    0.0834    0.1143     H
   H74    0.9242    0.0523    0.0981     H
   O75    0.3733    0.5618    0.0922     O
   H76    0.4242    0.5523    0.0981     H
   H77    0.3532    0.5834    0.1143     H
   O78    0.1872    0.3738    0.0954     O
   H79    0.2300    0.3956    0.0842     H
   H80    0.1503    0.3742    0.0763     H
   O81    0.1267    0.4382    0.1578     O
   H82    0.1468    0.4166    0.1357     H
   H83    0.0758    0.4477    0.1519     H
   O84    0.1909    0.5628    0.1881     O
   H85    0.1527    0.5997    0.1879     H
   H86    0.1683    0.5200    0.1772     H
   O87    0.6267    0.4382    0.4078     O
   H88    0.6468    0.4166    0.3857     H
   H89    0.5758    0.4477    0.4019     H
   O90    0.4382    0.1233    0.4672     O
   H91    0.4477    0.1742    0.4731     H
   H92    0.4166    0.1032    0.4893     H
   O93    0.1882    0.8767    0.3422     O
   H94    0.1666    0.8968    0.3643     H
   H95    0.1977    0.8258    0.3481     H
   O96    0.6882    0.8733    0.2828     O
   H97    0.6977    0.9242    0.2769     H
   H98    0.6666    0.8532    0.2607     H
   O99    0.1233    0.9382    0.2172     O
  H100    0.1032    0.9166    0.2393     H
  H101    0.1742    0.9477    0.2231     H
  O102    0.6882    0.6844    0.1884     O
  H103    0.6977    0.6962    0.1629     H
  H104    0.6666    0.7285    0.1984     H
  O105    0.1860    0.8779    0.0320     O
  H106    0.2290    0.8514    0.0402     H
  H107    0.1696    0.8514    0.0105     H
  O108    0.1262    0.4372    0.4704     O
  H109    0.1044    0.4800    0.4592     H
  H110    0.1258    0.4003    0.4513     H
  O111    0.6909    0.1872    0.4369     O
  H112    0.6683    0.2300    0.4478     H
  H113    0.6527    0.1503    0.4371     H
  O114    0.5628    0.6909    0.4381     O
  H115    0.5997    0.6527    0.4379     H
  H116    0.5200    0.6683    0.4272     H
  O117    0.0656    0.1882    0.4366     O
  H118    0.0538    0.1977    0.4621     H
  H119    0.0215    0.1666    0.4266     H
  O120    0.6250    0.1250    0.3107     O
  H121    0.5953    0.0953    0.3269     H
  H122    0.6547    0.1547    0.3269     H
  O123    0.6214    0.6250    0.0625     O
  H124    0.6539    0.5953    0.0477     H
  H125    0.6539    0.6547    0.0773     H
  O126    0.1214    0.1250    0.0625     O
  H127    0.1539    0.0953    0.0477     H
  H128    0.1539    0.1547    0.0773     H
  O129    0.1214    0.6250    0.3125     O
  H130    0.1539    0.6547    0.3273     H
  H131    0.1539    0.5953    0.2977     H
  O132    0.4390    0.3110    0.0639     O
  H133    0.4015    0.3485    0.0636     H
  H134    0.4489    0.3011    0.0383     H
  O135    0.3721    0.1860    0.0930     O
  H136    0.3986    0.2290    0.0848     H
  H137    0.3986    0.1696    0.1145     H
  O138    0.7837    0.2800    0.1418     O
  H139    0.7323    0.2909    0.1458     H
  H140    0.7917    0.2909    0.1162     H
  O141    0.9712    0.4675    0.1394     O
  H142    0.9396    0.4388    0.1552     H
  H143    0.9594    0.5180    0.1453     H
  O144    0.7788    0.7788    0.3912     O
  H145    0.7906    0.7906    0.3660     H
  H146    0.8104    0.8104    0.4056     H
  O147    0.9712    0.9712    0.3912     O
  H148    0.9594    0.9594    0.3660     H
  H149    0.9396    0.9396    0.4056     H
  O150    0.8118    0.9344    0.0634     O
  H151    0.8023    0.9462    0.0379     H
  H152    0.8334    0.9785    0.0734     H
  O153    0.3750    0.8786    0.1875     O
  H154    0.4047    0.8461    0.2023     H
  H155    0.3453    0.8461    0.1727     H
  O156    0.0610    0.5610    0.4389     O
  H157    0.0985    0.5985    0.4386     H
  H158    0.0511    0.5511    0.4133     H
  O159    0.3118    0.4344    0.0634     O
  H160    0.3334    0.4785    0.0734     H
  H161    0.3023    0.4462    0.0379     H
  O162    0.3750    0.3714    0.4375     O
  H163    0.4047    0.4039    0.4227     H
  H164    0.3453    0.4039    0.4523     H
  O165    0.6233    0.8156    0.4059     O
  H166    0.6742    0.8038    0.4011     H
  H167    0.6032    0.7715    0.4167     H
  O168    0.2788    0.9712    0.2338     O
  H169    0.2906    0.9594    0.2590     H
  H170    0.3104    0.9396    0.2194     H
  O171    0.4663    0.7800    0.2332     O
  H172    0.4583    0.7909    0.2588     H
  H173    0.5177    0.7909    0.2292     H
  O174    0.2837    0.4700    0.4832     O
  H175    0.2323    0.4591    0.4792     H
  H176    0.2917    0.4591    0.5088     H
  O177    0.4712    0.2788    0.4838     O
  H178    0.4594    0.2906    0.5090     H
  H179    0.4396    0.3104    0.4694     H
  O180    0.0610    0.8721    0.0945     O
  H181    0.0985    0.8727    0.0757     H
  H182    0.0511    0.9234    0.0994     H
  O183    0.8128    0.8091    0.3131     O
  H184    0.7700    0.8317    0.3022     H
  H185    0.8497    0.8473    0.3129     H
  O186    0.5656    0.3733    0.0941     O
  H187    0.5538    0.4242    0.0989     H
  H188    0.5215    0.3532    0.0833     H
  O189    0.8140    0.3140    0.0640     O
  H190    0.8304    0.2710    0.0507     H
  H191    0.7710    0.3304    0.0507     H
  O192    0.1233    0.3156    0.4059     O
  H193    0.1032    0.2715    0.4167     H
  H194    0.1742    0.3038    0.4011     H
  O195    0.8721    0.1890    0.0305     O
  H196    0.9234    0.1989    0.0256     H
  H197    0.8727    0.1515    0.0493     H
  O198    0.8110    0.1221    0.1555     O
  H199    0.8485    0.1227    0.1743     H
  H200    0.8011    0.1734    0.1506     H
  O201    0.9360    0.1279    0.2180     O
  H202    0.9196    0.1014    0.2395     H
  H203    0.9790    0.1014    0.2098     H
  O204    0.9372    0.3091    0.3119     O
  H205    0.9003    0.3473    0.3121     H
  H206    0.9800    0.3317    0.3228     H
  O207    0.8762    0.6872    0.2796     O
  H208    0.8544    0.7300    0.2908     H
  H209    0.8758    0.6503    0.2987     H
  O210    0.0325    0.7212    0.2644     O
  H211   -0.0180    0.7094    0.2703     H
  H212    0.0612    0.6896    0.2802     H
  O213    0.9372    0.8091    0.0619     O
  H214    0.9800    0.8317    0.0728     H
  H215    0.9003    0.8473    0.0621     H
  O216    0.1279    0.8110    0.4695     O
  H217    0.0766    0.8011    0.4744     H
  H218    0.1273    0.8485    0.4507     H
  O219    0.3721    0.6890    0.0305     O
  H220    0.3727    0.6515    0.0493     H
  H221    0.4234    0.6989    0.0256     H
  O222    0.6279    0.3110    0.4695     O
  H223    0.6273    0.3485    0.4507     H
  H224    0.5766    0.3011    0.4744     H
  O225    0.3128    0.1262    0.4046     O
  H226    0.3497    0.1258    0.4237     H
  H227    0.2700    0.1044    0.4158     H
  O228    0.2200    0.0337    0.0168     O
  H229    0.2091    0.0417   -0.0088     H
  H230    0.2091   -0.0177    0.0208     H
  O231    0.0288    0.2175    0.0144     O
  H232    0.0406    0.2680    0.0203     H
  H233    0.0604    0.1888    0.0302     H
  O234    0.2200    0.5337    0.2668     O
  H235    0.2091    0.5417    0.2412     H
  H236    0.2091    0.4823    0.2708     H
  O237    0.8118    0.6233    0.4078     O
  H238    0.8334    0.6032    0.3857     H
  H239    0.8023    0.6742    0.4019     H
  O240    0.4390    0.1279    0.1555     O
  H241    0.4489    0.0766    0.1506     H
  H242    0.4015    0.1273    0.1743     H
  O243    0.6262    0.3091    0.1564     O
  H244    0.6258    0.3473    0.1748     H
  H245    0.6044    0.3317    0.1350     H
  O246    0.1262    0.8091    0.1564     O
  H247    0.1258    0.8473    0.1748     H
  H248    0.1044    0.8317    0.1350     H
  O249    0.8140    0.6221    0.2180     O
  H250    0.8304    0.6486    0.2395     H
  H251    0.7710    0.6486    0.2098     H
  O252    0.7163    0.2200    0.3582     O
  H253    0.7677    0.2091    0.3542     H
  H254    0.7083    0.2091    0.3838     H
  O255    0.7163    0.7163    0.1100     O
  H256    0.7083    0.7677    0.1046     H
  H257    0.7677    0.7083    0.1046     H
  O258    0.5337    0.0337    0.3600     O
  H259    0.4823    0.0417    0.3546     H
  H260    0.5417   -0.0177    0.3546     H
  O261    0.5288    0.5288    0.1088     O
  H262    0.5604    0.5604    0.0944     H
  H263    0.5406    0.5406    0.1340     H
  O264    0.5628    0.5591    0.1869     O
  H265    0.5200    0.5817    0.1978     H
  H266    0.5997    0.5973    0.1871     H
  O267    0.9360    0.9360    0.3140     O
  H268    0.9790    0.9196    0.3007     H
  H269    0.9196    0.9790    0.3007     H
  O270    0.9390    0.1279    0.4055     O
  H271    0.9489    0.0766    0.4006     H
  H272    0.9015    0.1273    0.4243     H
  O273    0.4390    0.6221    0.2195     O
  H274    0.4489    0.6734    0.2244     H
  H275    0.4015    0.6227    0.2007     H
  O276    0.6890    0.3779    0.3445     O
  H277    0.6515    0.3773    0.3257     H
  H278    0.6989    0.3266    0.3494     H
  O279    0.6238    0.9409    0.1564     O
  H280    0.6242    0.9027    0.1748     H
  H281    0.6456    0.9183    0.1350     H
  O282    0.6872    0.8738    0.0954     O
  H283    0.7300    0.8956    0.0842     H
  H284    0.6503    0.8742    0.0763     H
  O285    0.3762    0.0591    0.3436     O
  H286    0.3544    0.0817    0.3650     H
  H287    0.3758    0.0973    0.3252     H
  O288    0.6860    0.5640    0.4390     O
  H289    0.6696    0.5210    0.4257     H
  H290    0.7290    0.5804    0.4257     H
  O291    0.8733    0.5656    0.3441     O
  H292    0.8532    0.5215    0.3333     H
  H293    0.9242    0.5538    0.3489     H
  O294    0.1890    0.0610    0.4361     O
  H295    0.1989    0.0511    0.4617     H
  H296    0.1515    0.0985    0.4364     H
  O297    0.1267    0.9344    0.4059     O
  H298    0.1468    0.9785    0.4167     H
  H299    0.0758    0.9462    0.4011     H
  O300    0.6233    0.4344    0.2191     O
  H301    0.6742    0.4462    0.2239     H
  H302    0.6032    0.4785    0.2083     H
  O303    0.8779    0.0610    0.2805     O
  H304    0.8266    0.0511    0.2756     H
  H305    0.8773    0.0985    0.2993     H
  O306    0.6909    0.3762    0.0314     O
  H307    0.6527    0.3758    0.0498     H
  H308    0.6683    0.3544    0.0100     H
  O309    0.8738    0.5628    0.0296     O
  H310    0.8956    0.5200    0.0408     H
  H311    0.8742    0.5997    0.0487     H
  O312    0.1860    0.6860    0.4360     O
  H313    0.2290    0.6696    0.4493     H
  H314    0.1696    0.7290    0.4493     H
  O315    0.4360    0.4360    0.3140     O
  H316    0.4790    0.4196    0.3007     H
  H317    0.4196    0.4790    0.3007     H
  O318    0.3767    0.5618    0.2828     O
  H319    0.3258    0.5523    0.2769     H
  H320    0.3968    0.5834    0.2607     H
  O321    0.3779    0.0610    0.0305     O
  H322    0.3266    0.0511    0.0256     H
  H323    0.3773    0.0985    0.0493     H
  O324    0.1860    0.3779    0.2820     O
  H325    0.2290    0.3514    0.2902     H
  H326    0.1696    0.3514    0.2605     H
  O327    0.6262    0.9372    0.4704     O
  H328    0.6258    0.9003    0.4513     H
  H329    0.6044    0.9800    0.4592     H
  O330    0.3738    0.6872    0.3454     O
  H331    0.3956    0.7300    0.3342     H
  H332    0.3742    0.6503    0.3263     H
  O333    0.8156    0.1267    0.4691     O
  H334    0.7715    0.1468    0.4583     H
  H335    0.8038    0.0758    0.4739     H
  O336    0.4675    0.9712    0.1394     O
  H337    0.5180    0.9594    0.1453     H
  H338    0.4388    0.9396    0.1552     H
  O339    0.2837    0.7800    0.1418     O
  H340    0.2917    0.7909    0.1162     H
  H341    0.2323    0.7909    0.1458     H
  O342    0.2788    0.2825    0.3894     O
  H343    0.2906    0.2320    0.3953     H
  H344    0.3104    0.3112    0.4052     H
  O345    0.4700    0.4663    0.3918     O
  H346    0.4591    0.4583    0.3662     H
  H347    0.4591    0.5177    0.3958     H
  O348    0.8156    0.4382    0.3134     O
  H349    0.7715    0.4166    0.3234     H
  H350    0.8038    0.4477    0.2879     H
  O351    0.5618    0.3767    0.2828     O
  H352    0.5523    0.3258    0.2769     H
  H353    0.5834    0.3968    0.2607     H
  O354    0.8750    0.3786    0.1875     O
  H355    0.9047    0.3461    0.2023     H
  H356    0.8453    0.3461    0.1727     H
  O357    0.0610    0.8779    0.2805     O
  H358    0.0985    0.8773    0.2993     H
  H359    0.0511    0.8266    0.2756     H
  O360    0.3140    0.9360    0.3110     O
  H361    0.2710    0.9196    0.3243     H
  H362    0.3304    0.9790    0.3243     H
  O363    0.0640    0.3721    0.0320     O
  H364    0.0210    0.3986    0.0402     H
  H365    0.0804    0.3986    0.0105     H
  O366    0.5640    0.8721    0.0320     O
  H367    0.5804    0.8986    0.0105     H
  H368    0.5210    0.8986    0.0402     H
  O369    0.8750    0.8750    0.4357     O
  H370    0.8453    0.9047    0.4519     H
  H371    0.9047    0.8453    0.4519     H
  O372    0.7788    0.4675    0.2356     O
  H373    0.7906    0.5180    0.2297     H
  H374    0.8104    0.4388    0.2198     H
  O375    0.9700    0.2837    0.2332     O
  H376    0.9591    0.2323    0.2292     H
  H377    0.9591    0.2917    0.2588     H
  O378    0.9700    0.7837    0.4832     O
  H379    0.9591    0.7917    0.5088     H
  H380    0.9591    0.7323    0.4792     H
  O381    0.7837    0.9700    0.4832     O
  H382    0.7917    0.9591    0.5088     H
  H383    0.7323    0.9591    0.4792     H
  O384    0.5591    0.8762    0.3436     O
  H385    0.5817    0.8544    0.3650     H
  H386    0.5973    0.8758    0.3252     H
  O387    0.3091    0.8128    0.0631     O
  H388    0.3317    0.7700    0.0522     H
  H389    0.3473    0.8497    0.0629     H
  O390    0.3110    0.3110    0.3111     O
  H391    0.3011    0.3011    0.3367     H
  H392    0.3485    0.3485    0.3114     H
  O393    0.0591    0.3762    0.3436     O
  H394    0.0973    0.3758    0.3252     H
  H395    0.0817    0.3544    0.3650     H
  O396    0.4409    0.6238    0.4064     O
  H397    0.4183    0.6456    0.3850     H
  H398    0.4027    0.6242    0.4248     H
  O399    0.1882    0.1844    0.1884     O
  H400    0.1666    0.2285    0.1984     H
  H401    0.1977    0.1962    0.1629     H
  O402    0.5591    0.1872    0.6881     O
  H403    0.5817    0.2300    0.6772     H
  H404    0.5973    0.1503    0.6879     H
  O405    0.6221    0.8140    0.7180     O
  H406    0.6486    0.8304    0.7395     H
  H407    0.6486    0.7710    0.7098     H
  O408    0.0591    0.6872    0.6881     O
  H409    0.0817    0.7300    0.6772     H
  H410    0.0973    0.6503    0.6879     H
  O411    0.3733    0.1882    0.7828     O
  H412    0.3532    0.1666    0.7607     H
  H413    0.4242    0.1977    0.7769     H
  O414    0.7200    0.0337    0.7668     O
  H415    0.7091   -0.0177    0.7708     H
  H416    0.7091    0.0417    0.7412     H
  O417    0.5288    0.2212    0.7662     O
  H418    0.5604    0.1896    0.7806     H
  H419    0.5406    0.2094    0.7410     H
  O420    0.7163    0.5300    0.5168     O
  H421    0.7677    0.5409    0.5208     H
  H422    0.7083    0.5409    0.4912     H
  O423    0.4409    0.8128    0.8119     O
  H424    0.4027    0.8497    0.8121     H
  H425    0.4183    0.7700    0.8228     H
  O426    0.9382    0.6233    0.9672     O
  H427    0.9166    0.6032    0.9893     H
  H428    0.9477    0.6742    0.9731     H
  O429    0.3091    0.6262    0.6564     O
  H430    0.3473    0.6258    0.6748     H
  H431    0.3317    0.6044    0.6350     H
  O432    0.5300    0.7163    0.5168     O
  H433    0.5409    0.7677    0.5208     H
  H434    0.5409    0.7083    0.4912     H
  O435    0.8767    0.1882    0.8422     O
  H436    0.8258    0.1977    0.8481     H
  H437    0.8968    0.1666    0.8643     H
  O438    0.8767    0.6882    0.5922     O
  H439    0.8968    0.6666    0.6143     H
  H440    0.8258    0.6977    0.5981     H
  O441    0.9344    0.6267    0.6559     O
  H442    0.9785    0.6468    0.6667     H
  H443    0.9462    0.5758    0.6511     H
  O444    0.0656    0.0618    0.6884     O
  H445    0.0215    0.0834    0.6984     H
  H446    0.0538    0.0523    0.6629     H
  O447    0.0288    0.0325    0.6106     O
  H448    0.0406   -0.0180    0.6047     H
  H449    0.0604    0.0612    0.5948     H
  O450    0.9360    0.4360    0.5640     O
  H451    0.9196    0.4790    0.5507     H
  H452    0.9790    0.4196    0.5507     H
  O453    0.3156    0.1267    0.7191     O
  H454    0.2715    0.1468    0.7083     H
  H455    0.3038    0.0758    0.7239     H
  O456    0.3140    0.6221    0.9680     O
  H457    0.2710    0.6486    0.9598     H
  H458    0.3304    0.6486    0.9895     H
  O459    0.5656    0.0618    0.9384     O
  H460    0.5215    0.0834    0.9484     H
  H461    0.5538    0.0523    0.9129     H
  O462    0.4390    0.9390    0.5611     O
  H463    0.4015    0.9015    0.5614     H
  H464    0.4489    0.9489    0.5867     H
  O465    0.2163    0.2200    0.6082     O
  H466    0.2677    0.2091    0.6042     H
  H467    0.2083    0.2091    0.6338     H
  O468    0.2212    0.7212    0.8588     O
  H469    0.2094    0.7094    0.8840     H
  H470    0.1896    0.6896    0.8444     H
  O471    0.0325    0.5288    0.8606     O
  H472   -0.0180    0.5406    0.8547     H
  H473    0.0612    0.5604    0.8448     H
  O474    0.1267    0.3118    0.7172     O
  H475    0.1468    0.3334    0.7393     H
  H476    0.0758    0.3023    0.7231     H
  O477    0.6860    0.0640    0.6890     O
  H478    0.6696    0.0210    0.6757     H
  H479    0.7290    0.0804    0.6757     H
  O480    0.8721    0.0610    0.5945     O
  H481    0.9234    0.0511    0.5994     H
  H482    0.8727    0.0985    0.5757     H
  O483    0.3733    0.5656    0.5941     O
  H484    0.3532    0.5215    0.5833     H
  H485    0.4242    0.5538    0.5989     H
  O486    0.1882    0.3767    0.5922     O
  H487    0.1666    0.3968    0.6143     H
  H488    0.1977    0.3258    0.5981     H
  O489    0.1279    0.4390    0.6555     O
  H490    0.0766    0.4489    0.6506     H
  H491    0.1273    0.4015    0.6743     H
  O492    0.1860    0.5640    0.6890     O
  H493    0.2290    0.5804    0.6757     H
  H494    0.1696    0.5210    0.6757     H
  O495    0.6221    0.4360    0.9070     O
  H496    0.6486    0.4196    0.8855     H
  H497    0.6486    0.4790    0.9152     H
  O498    0.4382    0.1233    0.9672     O
  H499    0.4477    0.1742    0.9731     H
  H500    0.4166    0.1032    0.9893     H
  O501    0.1844    0.8767    0.8441     O
  H502    0.1962    0.8258    0.8489     H
  H503    0.2285    0.8968    0.8333     H
  O504    0.6872    0.8762    0.7796     O
  H505    0.7300    0.8544    0.7908     H
  H506    0.6503    0.8758    0.7987     H
  O507    0.1279    0.9360    0.7180     O
  H508    0.1014    0.9196    0.7395     H
  H509    0.1014    0.9790    0.7098     H
  O510    0.6890    0.6890    0.6889     O
  H511    0.6989    0.6989    0.6633     H
  H512    0.6515    0.6515    0.6886     H
  O513    0.1860    0.8779    0.5320     O
  H514    0.1696    0.8514    0.5105     H
  H515    0.2290    0.8514    0.5402     H
  O516    0.1233    0.4344    0.9691     O
  H517    0.1032    0.4785    0.9583     H
  H518    0.1742    0.4462    0.9739     H
  O519    0.6890    0.1890    0.9389     O
  H520    0.6515    0.1515    0.9386     H
  H521    0.6989    0.1989    0.9133     H
  O522    0.5656    0.6882    0.9366     O
  H523    0.5538    0.6977    0.9621     H
  H524    0.5215    0.6666    0.9266     H
  O525    0.0610    0.1890    0.9361     O
  H526    0.0985    0.1515    0.9364     H
  H527    0.0511    0.1989    0.9617     H
  O528    0.6250    0.1286    0.8125     O
  H529    0.5953    0.0961    0.8273     H
  H530    0.6547    0.0961    0.7977     H
  O531    0.6250    0.6250    0.5643     O
  H532    0.6547    0.5953    0.5481     H
  H533    0.5953    0.6547    0.5481     H
  O534    0.1250    0.1214    0.5625     O
  H535    0.0953    0.1539    0.5477     H
  H536    0.1547    0.1539    0.5773     H
  O537    0.1250    0.6250    0.8143     O
  H538    0.0953    0.6547    0.7981     H
  H539    0.1547    0.5953    0.7981     H
  O540    0.4360    0.3140    0.5610     O
  H541    0.4196    0.2710    0.5743     H
  H542    0.4790    0.3304    0.5743     H
  O543    0.3738    0.1909    0.5936     O
  H544    0.3956    0.1683    0.6150     H
  H545    0.3742    0.1527    0.5752     H
  O546    0.7800    0.2837    0.6418     O
  H547    0.7909    0.2917    0.6162     H
  H548    0.7909    0.2323    0.6458     H
  O549    0.9712    0.4712    0.6412     O
  H550    0.9396    0.4396    0.6556     H
  H551    0.9594    0.4594    0.6160     H
  O552    0.7837    0.7837    0.8900     O
  H553    0.7323    0.7917    0.8954     H
  H554    0.7917    0.7323    0.8954     H
  O555    0.9700    0.9663    0.8918     O
  H556    0.9591    0.9583    0.8662     H
  H557    0.9591    1.0177    0.8958     H
  O558    0.8091    0.9372    0.5619     O
  H559    0.8317    0.9800    0.5728     H
  H560    0.8473    0.9003    0.5621     H
  O561    0.3714    0.8750    0.6875     O
  H562    0.4039    0.8453    0.7023     H
  H563    0.4039    0.9047    0.6727     H
  O564    0.0656    0.5618    0.9384     O
  H565    0.0538    0.5523    0.9129     H
  H566    0.0215    0.5834    0.9484     H
  O567    0.3128    0.4409    0.5619     O
  H568    0.3497    0.4027    0.5621     H
  H569    0.2700    0.4183    0.5728     H
  O570    0.3750    0.3750    0.9393     O
  H571    0.3453    0.3453    0.9231     H
  H572    0.4047    0.4047    0.9231     H
  O573    0.6262    0.8128    0.9046     O
  H574    0.6044    0.7700    0.9158     H
  H575    0.6258    0.8497    0.9237     H
  O576    0.2825    0.9712    0.7356     O
  H577    0.2320    0.9594    0.7297     H
  H578    0.3112    0.9396    0.7198     H
  O579    0.4663    0.7800    0.7332     O
  H580    0.4583    0.7909    0.7588     H
  H581    0.5177    0.7909    0.7292     H
  O582    0.2788    0.4675    0.9856     O
  H583    0.2906    0.5180    0.9797     H
  H584    0.3104    0.4388    0.9698     H
  O585    0.4675    0.2788    0.9856     O
  H586    0.5180    0.2906    0.9797     H
  H587    0.4388    0.3104    0.9698     H
  O588    0.0591    0.8762    0.5936     O
  H589    0.0973    0.8758    0.5752     H
  H590    0.0817    0.8544    0.6150     H
  O591    0.8110    0.8110    0.8111     O
  H592    0.8011    0.8011    0.8367     H
  H593    0.8485    0.8485    0.8114     H
  O594    0.5591    0.3762    0.5936     O
  H595    0.5817    0.3544    0.6150     H
  H596    0.5973    0.3758    0.5752     H
  O597    0.8128    0.3091    0.5631     O
  H598    0.7700    0.3317    0.5522     H
  H599    0.8497    0.3473    0.5629     H
  O600    0.1262    0.3128    0.9046     O
  H601    0.1258    0.3497    0.9237     H
  H602    0.1044    0.2700    0.9158     H
  O603    0.8779    0.1860    0.5320     O
  H604    0.8514    0.2290    0.5402     H
  H605    0.8514    0.1696    0.5105     H
  O606    0.8091    0.1262    0.6564     O
  H607    0.8473    0.1258    0.6748     H
  H608    0.8317    0.1044    0.6350     H
  O609    0.9382    0.1233    0.7172     O
  H610    0.9477    0.1742    0.7231     H
  H611    0.9166    0.1032    0.7393     H
  O612    0.9360    0.3140    0.8110     O
  H613    0.9790    0.3304    0.8243     H
  H614    0.9196    0.2710    0.8243     H
  O615    0.8779    0.6860    0.7820     O
  H616    0.8514    0.7290    0.7902     H
  H617    0.8514    0.6696    0.7605     H
  O618    0.0337    0.7200    0.7668     O
  H619   -0.0177    0.7091    0.7708     H
  H620    0.0417    0.7091    0.7412     H
  O621    0.9360    0.8140    0.5610     O
  H622    0.9196    0.7710    0.5743     H
  H623    0.9790    0.8304    0.5743     H
  O624    0.1279    0.8110    0.9695     O
  H625    0.1273    0.8485    0.9507     H
  H626    0.0766    0.8011    0.9744     H
  O627    0.3721    0.6890    0.5305     O
  H628    0.4234    0.6989    0.5256     H
  H629    0.3727    0.6515    0.5493     H
  O630    0.6238    0.3128    0.9704     O
  H631    0.6242    0.3497    0.9513     H
  H632    0.6456    0.2700    0.9592     H
  O633    0.3110    0.1221    0.9055     O
  H634    0.3011    0.1734    0.9006     H
  H635    0.3485    0.1227    0.9243     H
  O636    0.2212    0.0325    0.5144     O
  H637    0.1896    0.0612    0.5302     H
  H638    0.2094   -0.0180    0.5203     H
  O639    0.0337    0.2163    0.5150     O
  H640    0.0417    0.2677    0.5204     H
  H641   -0.0177    0.2083    0.5204     H
  O642    0.2163    0.5300    0.7668     O
  H643    0.2677    0.5409    0.7708     H
  H644    0.2083    0.5409    0.7412     H
  O645    0.8128    0.6262    0.9046     O
  H646    0.8497    0.6258    0.9237     H
  H647    0.7700    0.6044    0.9158     H
  O648    0.4372    0.1238    0.6546     O
  H649    0.4003    0.1242    0.6737     H
  H650    0.4800    0.1456    0.6658     H
  O651    0.6221    0.3110    0.6555     O
  H652    0.6734    0.3011    0.6506     H
  H653    0.6227    0.3485    0.6743     H
  O654    0.1221    0.8110    0.6555     O
  H655    0.1734    0.8011    0.6506     H
  H656    0.1227    0.8485    0.6743     H
  O657    0.8128    0.6238    0.7204     O
  H658    0.8497    0.6242    0.7013     H
  H659    0.7700    0.6456    0.7092     H
  O660    0.7212    0.2175    0.8606     O
  H661    0.7094    0.2680    0.8547     H
  H662    0.6896    0.1888    0.8448     H
  O663    0.7212    0.7175    0.6106     O
  H664    0.6896    0.6888    0.5948     H
  H665    0.7094    0.7680    0.6047     H
  O666    0.5337    0.0337    0.8600     O
  H667    0.5417   -0.0177    0.8546     H
  H668    0.4823    0.0417    0.8546     H
  O669    0.5288    0.5325    0.6106     O
  H670    0.5406    0.4820    0.6047     H
  H671    0.5604    0.5612    0.5948     H
  O672    0.5618    0.5656    0.6884     O
  H673    0.5523    0.5538    0.6629     H
  H674    0.5834    0.5215    0.6984     H
  O675    0.9360    0.9360    0.8140     O
  H676    0.9790    0.9196    0.8007     H
  H677    0.9196    0.9790    0.8007     H
  O678    0.9372    0.1238    0.9046     O
  H679    0.9003    0.1242    0.9237     H
  H680    0.9800    0.1456    0.9158     H
  O681    0.4344    0.6233    0.7191     O
  H682    0.4785    0.6032    0.7083     H
  H683    0.4462    0.6742    0.7239     H
  O684    0.6872    0.3738    0.8454     O
  H685    0.7300    0.3956    0.8342     H
  H686    0.6503    0.3742    0.8263     H
  O687    0.6238    0.9409    0.6564     O
  H688    0.6242    0.9027    0.6748     H
  H689    0.6456    0.9183    0.6350     H
  O690    0.6872    0.8738    0.5954     O
  H691    0.7300    0.8956    0.5842     H
  H692    0.6503    0.8742    0.5763     H
  O693    0.3762    0.0591    0.8436     O
  H694    0.3758    0.0973    0.8252     H
  H695    0.3544    0.0817    0.8650     H
  O696    0.6890    0.5610    0.9361     O
  H697    0.6515    0.5985    0.9364     H
  H698    0.6989    0.5511    0.9617     H
  O699    0.8762    0.5591    0.8436     O
  H700    0.8758    0.5973    0.8252     H
  H701    0.8544    0.5817    0.8650     H
  O702    0.1860    0.0640    0.9390     O
  H703    0.2290    0.0804    0.9257     H
  H704    0.1696    0.0210    0.9257     H
  O705    0.1267    0.9382    0.9078     O
  H706    0.1468    0.9166    0.8857     H
  H707    0.0758    0.9477    0.9019     H
  O708    0.6233    0.4382    0.7172     O
  H709    0.6742    0.4477    0.7231     H
  H710    0.6032    0.4166    0.7393     H
  O711    0.8779    0.0610    0.7805     O
  H712    0.8266    0.0511    0.7756     H
  H713    0.8773    0.0985    0.7993     H
  O714    0.6882    0.3733    0.5328     O
  H715    0.6666    0.3532    0.5107     H
  H716    0.6977    0.4242    0.5269     H
  O717    0.8738    0.5591    0.5314     O
  H718    0.8956    0.5817    0.5100     H
  H719    0.8742    0.5973    0.5498     H
  O720    0.1909    0.6872    0.9369     O
  H721    0.1527    0.6503    0.9371     H
  H722    0.1683    0.7300    0.9478     H
  O723    0.4390    0.4390    0.8111     O
  H724    0.4489    0.4489    0.8367     H
  H725    0.4015    0.4015    0.8114     H
  O726    0.3721    0.5640    0.7820     O
  H727    0.3986    0.5210    0.7902     H
  H728    0.3986    0.5804    0.7605     H
  O729    0.3767    0.0656    0.5309     O
  H730    0.3968    0.0215    0.5417     H
  H731    0.3258    0.0538    0.5261     H
  O732    0.1890    0.3721    0.7805     O
  H733    0.1515    0.3727    0.7993     H
  H734    0.1989    0.4234    0.7756     H
  O735    0.6233    0.9344    0.9691     O
  H736    0.6032    0.9785    0.9583     H
  H737    0.6742    0.9462    0.9739     H
  O738    0.3779    0.6890    0.8445     O
  H739    0.3773    0.6515    0.8257     H
  H740    0.3266    0.6989    0.8494     H
  O741    0.8140    0.1221    0.9680     O
  H742    0.8304    0.1486    0.9895     H
  H743    0.7710    0.1486    0.9598     H
  O744    0.4663    0.9663    0.6400     O
  H745    0.4583    1.0177    0.6454     H
  H746    0.5177    0.9583    0.6454     H
  O747    0.2788    0.7825    0.6394     O
  H748    0.3104    0.8112    0.6552     H
  H749    0.2906    0.7320    0.6453     H
  O750    0.2837    0.2800    0.8918     O
  H751    0.2323    0.2909    0.8958     H
  H752    0.2917    0.2909    0.8662     H
  O753    0.4663    0.4663    0.8900     O
  H754    0.4583    0.5177    0.8954     H
  H755    0.5177    0.4583    0.8954     H
  O756    0.8091    0.4372    0.8119     O
  H757    0.8473    0.4003    0.8121     H
  H758    0.8317    0.4800    0.8228     H
  O759    0.5656    0.3767    0.7809     O
  H760    0.5538    0.3258    0.7761     H
  H761    0.5215    0.3968    0.7917     H
  O762    0.8786    0.3750    0.6875     O
  H763    0.8461    0.4047    0.7023     H
  H764    0.8461    0.3453    0.6727     H
  O765    0.0610    0.8779    0.7805     O
  H766    0.0511    0.8266    0.7756     H
  H767    0.0985    0.8773    0.7993     H
  O768    0.3118    0.9344    0.8134     O
  H769    0.3334    0.9785    0.8234     H
  H770    0.3023    0.9462    0.7879     H
  O771    0.0591    0.3738    0.5314     O
  H772    0.0817    0.3956    0.5100     H
  H773    0.0973    0.3742    0.5498     H
  O774    0.5640    0.8721    0.5320     O
  H775    0.5210    0.8986    0.5402     H
  H776    0.5804    0.8986    0.5105     H
  O777    0.8750    0.8750    0.9393     O
  H778    0.8453    0.8453    0.9231     H
  H779    0.9047    0.9047    0.9231     H
  O780    0.7800    0.4663    0.7332     O
  H781    0.7909    0.5177    0.7292     H
  H782    0.7909    0.4583    0.7588     H
  O783    0.9712    0.2788    0.7338     O
  H784    0.9594    0.2906    0.7590     H
  H785    0.9396    0.3104    0.7194     H
  O786    0.9712    0.7788    0.9838     O
  H787    0.9594    0.7906    1.0090     H
  H788    0.9396    0.8104    0.9694     H
  O789    0.7788    0.9675    0.9856     O
  H790    0.8104    0.9388    0.9698     H
  H791    0.7906    1.0180    0.9797     H
  O792    0.5640    0.8779    0.8430     O
  H793    0.5804    0.8514    0.8645     H
  H794    0.5210    0.8514    0.8348     H
  O795    0.3118    0.8156    0.5616     O
  H796    0.3023    0.8038    0.5871     H
  H797    0.3334    0.7715    0.5516     H
  O798    0.3140    0.3140    0.8140     O
  H799    0.2710    0.3304    0.8007     H
  H800    0.3304    0.2710    0.8007     H
  O801    0.0618    0.3733    0.8422     O
  H802    0.0834    0.3532    0.8643     H
  H803    0.0523    0.4242    0.8481     H
  O804    0.4409    0.6238    0.9064     O
  H805    0.4027    0.6242    0.9248     H
  H806    0.4183    0.6456    0.8850     H
  O807    0.1909    0.1872    0.6869     O
  H808    0.1683    0.2300    0.6978     H
  H809    0.1527    0.1503    0.6871     H
 Cl810    0.6250    0.8125    0.2188    Cl
 Na811    0.5625    0.1875    0.1875    Na

