data_genice_CS2
#
#Data source:
#[ice 16] Falenty, A., Hansen, T. C. & Kuhs, W. F. Formation and properties of ice XVI obtained by emptying a type sII clathrate hydrate. Nature 516, 231-233 (2014).
#[C15] Dutour Sikirić, Mathieu, Olaf Delgado-Friedrichs, and Michel Deza. “Space Fullerenes: a Computer Search for New Frank-Kasper Structures” Acta Crystallographica Section A Foundations of Crystallography 66.Pt 5 (2010): 602–615.
#[sII] Jeffrey, G A. “Hydrate Inclusion Compounds.” Inclusion Compounds 1 (1984): 135–190.
#[CS2] Kosyakov, Viktor I, and T M Polyanskaya. “Using Structural Data for Estimating the Stability of Water Networks in Clathrate and Semiclathrate Hydrates.” Journal of Structural Chemistry 40.2 (1999): 239–245.
#[MTN] http://www.iza-structure.org/databases/
#
_cell_length_a                17.120977156117426
_cell_length_b                17.120977156117426
_cell_length_c                34.24195431223485
_cell_angle_alpha             90.0
_cell_angle_beta              90.0
_cell_angle_gamma             90.0

_symmetry_cell_setting        'orthorhombic'
_symmetry_space_group_name_H-M   'P 1 '

loop_
  _symmetry_equiv_pos_as_xyz
X,Y,Z

loop_
_atom_site_label
_atom_site_fract_x
_atom_site_fract_y
_atom_site_fract_z
_atom_site_type_symbol
    O0    0.3185    0.9355    0.0598     O
    H1    0.2724    0.9123    0.0705     H
    H2    0.3565    0.8946    0.0602     H
    O3    0.9315    0.6304    0.2178     O
    H4    0.9776    0.6089    0.2062     H
    H5    0.8935    0.6295    0.1973     H
    O6    0.9302    0.9302    0.0660     O
    H7    0.9773    0.9148    0.0531     H
    H8    0.9148    0.9773    0.0531     H
    O9    0.3696    0.6855    0.0908     O
   H10    0.3911    0.6623    0.1138     H
   H11    0.3705    0.6446    0.0718     H
   O12    0.3213    0.6226    0.2162     O
   H13    0.2741    0.6437    0.2056     H
   H14    0.3087    0.5696    0.2224     H
   O15    0.8198    0.4302    0.0590     O
   H16    0.8352    0.4773    0.0719     H
   H17    0.7727    0.4148    0.0719     H
   O18    0.8750    0.3750    0.4356     O
   H19    0.9063    0.3437    0.4527     H
   H20    0.8437    0.4063    0.4527     H
   O21    0.3145    0.6304    0.4092     O
   H22    0.3377    0.6089    0.3862     H
   H23    0.3554    0.6295    0.4282     H
   O24    0.4287    0.1226    0.4088     O
   H25    0.4759    0.1437    0.4194     H
   H26    0.4413    0.0696    0.4026     H
   O27    0.2155    0.2155    0.3597     O
   H28    0.2689    0.2064    0.3529     H
   H29    0.2064    0.2689    0.3529     H
   O30    0.6274    0.4325    0.4643     O
   H31    0.6804    0.4449    0.4706     H
   H32    0.6063    0.4113    0.4880     H
   O33    0.6179    0.4302    0.1599     O
   H34    0.6438    0.4148    0.1363     H
   H35    0.6438    0.4773    0.1676     H
   O36    0.1321    0.8198    0.4099     O
   H37    0.1062    0.7727    0.4176     H
   H38    0.1062    0.8352    0.3863     H
   O39    0.2845    0.7845    0.3903     O
   H40    0.2936    0.7311    0.3971     H
   H41    0.2311    0.7936    0.3971     H
   O42    0.4287    0.4325    0.0637     O
   H43    0.4759    0.4113    0.0532     H
   H44    0.4413    0.4449    0.0902     H
   O45    0.2205    0.0332    0.2647     O
   H46    0.1878    0.0646    0.2811     H
   H47    0.2073   -0.0195    0.2714     H
   O48    0.6179    0.8198    0.4651     O
   H49    0.6438    0.7727    0.4574     H
   H50    0.6438    0.8352    0.4887     H
   O51    0.1802    0.8821    0.2849     O
   H52    0.2273    0.8562    0.2926     H
   H53    0.1648    0.8562    0.2613     H
   O54    0.1787    0.0675    0.1887     O
   H55    0.1913    0.0551    0.2152     H
   H56    0.2259    0.0887    0.1782     H
   O57    0.4668    0.4705    0.1397     O
   H58    0.5195    0.4573    0.1464     H
   H59    0.4354    0.4378    0.1561     H
   O60    0.9336    0.1239    0.1582     O
   H61    0.8940    0.1220    0.1780     H
   H62    0.9448    0.0703    0.1526     H
   O63    0.8750    0.8788    0.1875     O
   H64    0.9063    0.8446    0.2031     H
   H65    0.8437    0.8446    0.1719     H
   O66    0.1261    0.4336    0.2168     O
   H67    0.1280    0.3940    0.1970     H
   H68    0.1797    0.4448    0.2224     H
   O69    0.1825    0.8726    0.0893     O
   H70    0.1949    0.8196    0.0956     H
   H71    0.1613    0.8937    0.1130     H
   O72    0.4325    0.9287    0.3137     O
   H73    0.4113    0.9759    0.3032     H
   H74    0.4449    0.9413    0.3402     H
   O75    0.1196    0.3185    0.4678     O
   H76    0.1205    0.3565    0.4473     H
   H77    0.1411    0.2724    0.4562     H
   O78    0.6787    0.0675    0.4387     O
   H79    0.7259    0.0887    0.4282     H
   H80    0.6913    0.0551    0.4652     H
   O81    0.8185    0.8145    0.0652     O
   H82    0.8565    0.8554    0.0648     H
   H83    0.7724    0.8377    0.0545     H
   O84    0.8804    0.0685    0.3428     O
   H85    0.8589    0.0224    0.3312     H
   H86    0.8795    0.1065    0.3223     H
   O87    0.9705    0.9705    0.1416     O
   H88    0.9378    0.9378    0.1573     H
   H89    0.9573    0.9573    0.1153     H
   O90    0.0685    0.6855    0.4402     O
   H91    0.1065    0.6446    0.4398     H
   H92    0.0224    0.6623    0.4295     H
   O93    0.7168    0.7205    0.3603     O
   H94    0.7695    0.7073    0.3536     H
   H95    0.6854    0.6878    0.3439     H
   O96    0.8726    0.1825    0.0893     O
   H97    0.8937    0.1613    0.1130     H
   H98    0.8196    0.1949    0.0956     H
   O99    0.5305    0.5345    0.3577     O
  H100    0.5442    0.5436    0.3845     H
  H101    0.5442    0.4811    0.3532     H
  O102    0.6825    0.8726    0.3393     O
  H103    0.6613    0.8937    0.3630     H
  H104    0.6949    0.8196    0.3456     H
  O105    0.0664    0.8761    0.3418     O
  H106    0.1060    0.8780    0.3220     H
  H107    0.0552    0.9297    0.3474     H
  O108    0.5645    0.3804    0.3408     O
  H109    0.6054    0.3795    0.3218     H
  H110    0.5877    0.3589    0.3638     H
  O111    0.3185    0.3145    0.0652     O
  H112    0.3565    0.3554    0.0648     H
  H113    0.2724    0.3377    0.0545     H
  O114    0.3175    0.1274    0.1607     O
  H115    0.3387    0.1063    0.1370     H
  H116    0.3051    0.1804    0.1544     H
  O117    0.1179    0.4302    0.4099     O
  H118    0.1438    0.4148    0.3863     H
  H119    0.1438    0.4773    0.4176     H
  O120    0.8739    0.0664    0.0332     O
  H121    0.8720    0.1060    0.0530     H
  H122    0.8203    0.0552    0.0276     H
  O123    0.0645    0.0685    0.4348     O
  H124    0.1054    0.1065    0.4352     H
  H125    0.0877    0.0224    0.4455     H
  O126    0.8774    0.1825    0.2857     O
  H127    0.8563    0.1613    0.2620     H
  H128    0.9304    0.1949    0.2794     H
  O129    0.2845    0.2805    0.1423     O
  H130    0.2311    0.2942    0.1468     H
  H131    0.2936    0.2942    0.1155     H
  O132    0.3679    0.5698    0.0349     O
  H133    0.3938    0.5227    0.0426     H
  H134    0.3938    0.5852    0.0113     H
  O135    0.1250    0.6250    0.0644     O
  H136    0.1563    0.5937    0.0473     H
  H137    0.0937    0.6563    0.0473     H
  O138    0.8696    0.6815    0.3428     O
  H139    0.8911    0.7276    0.3312     H
  H140    0.8705    0.6435    0.3223     H
  O141    0.9668    0.4705    0.3897     O
  H142    0.9354    0.4378    0.4061     H
  H143    1.0195    0.4573    0.3964     H
  O144    0.6836    0.6836    0.4369     O
  H145    0.6948    0.6948    0.4101     H
  H146    0.6440    0.6440    0.4360     H
  O147    0.6802    0.3821    0.2849     O
  H148    0.6648    0.3562    0.2613     H
  H149    0.7273    0.3562    0.2926     H
  O150    0.4668    0.7795    0.4853     O
  H151    0.5195    0.7927    0.4786     H
  H152    0.4354    0.8122    0.4689     H
  O153    0.0685    0.1855    0.1902     O
  H154    0.1065    0.1446    0.1898     H
  H155    0.0224    0.1623    0.1795     H
  O156    0.3145    0.4315    0.3098     O
  H157    0.3554    0.3935    0.3102     H
  H158    0.3377    0.4776    0.3205     H
  O159    0.4325    0.6274    0.4643     O
  H160    0.4113    0.6063    0.4880     H
  H161    0.4449    0.6804    0.4706     H
  O162    0.5305    0.2155    0.0173     O
  H163    0.5442    0.2689    0.0218     H
  H164    0.5442    0.2064   -0.0095     H
  O165    0.6274    0.9287    0.2162     O
  H166    0.6063    0.9759    0.2056     H
  H167    0.6804    0.9413    0.2224     H
  O168    0.4325    0.8213    0.0613     O
  H169    0.4449    0.8087    0.0348     H
  H170    0.4113    0.7741    0.0718     H
  O171    0.7205    0.2168    0.1103     O
  H172    0.6878    0.1854    0.0939     H
  H173    0.7073    0.2695    0.1036     H
  O174    0.5645    0.3696    0.0342     O
  H175    0.5877    0.3911    0.0112     H
  H176    0.6054    0.3705    0.0532     H
  O177    0.1836    0.6836    0.1869     O
  H178    0.1440    0.6440    0.1860     H
  H179    0.1948    0.6948    0.1601     H
  O180    0.6825    0.1787    0.1863     O
  H181    0.6949    0.1913    0.1598     H
  H182    0.6613    0.2259    0.1968     H
  O183    0.0713    0.3774    0.0912     O
  H184    0.0587    0.4304    0.0974     H
  H185    0.0241    0.3563    0.0806     H
  O186    0.9355    0.3185    0.0598     O
  H187    0.8946    0.3565    0.0602     H
  H188    0.9123    0.2724    0.0705     H
  O189    0.0675    0.5713    0.1863     O
  H190    0.0887    0.5241    0.1968     H
  H191    0.0551    0.5587    0.1598     H
  O192    0.9655    0.2845    0.4847     O
  H193    0.9564    0.2311    0.4779     H
  H194    1.0189    0.2936    0.4779     H
  O195    0.5345    0.0345    0.1097     O
  H196    0.4811    0.0436    0.1029     H
  H197    0.5436   -0.0189    0.1029     H
  O198    0.8213    0.6274    0.1588     O
  H199    0.7741    0.6063    0.1694     H
  H200    0.8087    0.6804    0.1526     H
  O201    0.3726    0.0675    0.2857     O
  H202    0.3937    0.0887    0.2620     H
  H203    0.3196    0.0551    0.2794     H
  O204    0.1321    0.3198    0.1599     O
  H205    0.1062    0.2727    0.1676     H
  H206    0.1062    0.3352    0.1363     H
  O207    0.8679    0.5698    0.2849     O
  H208    0.8938    0.5227    0.2926     H
  H209    0.8938    0.5852    0.2613     H
  O210    0.9315    0.1304    0.4678     O
  H211    0.8935    0.1295    0.4473     H
  H212    0.9776    0.1089    0.4562     H
  O213    0.3750    0.3788    0.1875     O
  H214    0.4063    0.3446    0.2031     H
  H215    0.3437    0.3446    0.1719     H
  O216    0.2845    0.9655    0.4847     O
  H217    0.2936    1.0189    0.4779     H
  H218    0.2311    0.9564    0.4779     H
  O219    0.1815    0.3696    0.3428     O
  H220    0.1435    0.3705    0.3223     H
  H221    0.2276    0.3911    0.3312     H
  O222    0.8185    0.9355    0.3098     O
  H223    0.8565    0.8946    0.3102     H
  H224    0.7724    0.9123    0.3205     H
  O225    0.3788    0.8750    0.4375     O
  H226    0.3446    0.9063    0.4531     H
  H227    0.3446    0.8437    0.4219     H
  O228    0.8185    0.6196    0.4678     O
  H229    0.8565    0.6205    0.4473     H
  H230    0.7724    0.6411    0.4562     H
  O231    0.6288    0.1250    0.0625     O
  H232    0.5946    0.1563    0.0469     H
  H233    0.5946    0.0937    0.0781     H
  O234    0.6250    0.6288    0.3125     O
  H235    0.6563    0.5946    0.2969     H
  H236    0.5937    0.5946    0.3281     H
  O237    0.1787    0.5675    0.4387     O
  H238    0.1913    0.5551    0.4652     H
  H239    0.2259    0.5887    0.4282     H
  O240    0.5713    0.6825    0.1887     O
  H241    0.5587    0.6949    0.2152     H
  H242    0.5241    0.6613    0.1782     H
  O243    0.7795    0.9705    0.2334     O
  H244    0.7927    0.9573    0.2597     H
  H245    0.8122    0.9378    0.2177     H
  O246    0.1226    0.9287    0.1588     O
  H247    0.0696    0.9413    0.1526     H
  H248    0.1437    0.9759    0.1694     H
  O249    0.1787    0.1825    0.4363     O
  H250    0.1913    0.1949    0.4098     H
  H251    0.2259    0.1613    0.4468     H
  O252    0.3804    0.0685    0.0928     O
  H253    0.3795    0.1065    0.0723     H
  H254    0.3589    0.0224    0.0812     H
  O255    0.8774    0.6787    0.0338     O
  H256    0.8563    0.7259    0.0444     H
  H257    0.9304    0.6913    0.0276     H
  O258    0.7805    0.4655    0.4827     O
  H259    0.7942    0.5189    0.4782     H
  H260    0.7942    0.4564    0.5095     H
  O261    0.7155    0.5345    0.2653     O
  H262    0.7064    0.4811    0.2721     H
  H263    0.7689    0.5436    0.2721     H
  O264    0.9325    0.6226    0.4107     O
  H265    0.9449    0.5696    0.4044     H
  H266    0.9113    0.6437    0.3870     H
  O267    0.0675    0.3726    0.2857     O
  H268    0.0551    0.3196    0.2794     H
  H269    0.0887    0.3937    0.2620     H
  O270    0.2168    0.7205    0.1103     O
  H271    0.2695    0.7073    0.1036     H
  H272    0.1854    0.6878    0.0939     H
  O273    0.6836    0.8761    0.0332     O
  H274    0.6948    0.9297    0.0276     H
  H275    0.6440    0.8780    0.0530     H
  O276    0.8213    0.1226    0.2162     O
  H277    0.8087    0.0696    0.2224     H
  H278    0.7741    0.1437    0.2056     H
  O279    0.9655    0.7845    0.2347     O
  H280    0.9564    0.7311    0.2279     H
  H281    1.0189    0.7936    0.2279     H
  O282    0.6261    0.3164    0.4082     O
  H283    0.6797    0.3052    0.4026     H
  H284    0.6280    0.3560    0.4280     H
  O285    0.4302    0.3198    0.3090     O
  H286    0.4148    0.2727    0.3219     H
  H287    0.4773    0.3352    0.3219     H
  O288    0.3145    0.1196    0.4658     O
  H289    0.3554    0.1205    0.4468     H
  H290    0.3377    0.1411    0.4888     H
  O291    0.4695    0.2845    0.2327     O
  H292    0.4558    0.2311    0.2282     H
  H293    0.4558    0.2936    0.2595     H
  O294    0.1304    0.9355    0.4658     O
  H295    0.1295    0.8946    0.4468     H
  H296    0.1089    0.9123    0.4888     H
  O297    0.0305    0.7155    0.0173     O
  H298    0.0442    0.7689    0.0218     H
  H299    0.0442    0.7064   -0.0095     H
  O300    0.0645    0.8696    0.0342     O
  H301    0.0877    0.8911    0.0112     H
  H302    0.1054    0.8705    0.0532     H
  O303    0.4668    0.9705    0.3897     O
  H304    0.5195    0.9573    0.3964     H
  H305    0.4354    0.9378    0.4061     H
  O306    0.0345    0.0305    0.3577     O
  H307   -0.0189    0.0442    0.3532     H
  H308    0.0436    0.0442    0.3845     H
  O309    0.9287    0.4325    0.3137     O
  H310    0.9413    0.4449    0.3402     H
  H311    0.9759    0.4113    0.3032     H
  O312    0.4315    0.1304    0.2178     O
  H313    0.4776    0.1089    0.2062     H
  H314    0.3935    0.1295    0.1973     H
  O315    0.9287    0.8175    0.3113     O
  H316    0.9413    0.8051    0.2848     H
  H317    0.9759    0.8387    0.3218     H
  O318    0.2795    0.4705    0.2334     O
  H319    0.2927    0.4573    0.2597     H
  H320    0.3122    0.4378    0.2177     H
  O321    0.6196    0.9315    0.4072     O
  H322    0.6205    0.8935    0.4277     H
  H323    0.6411    0.9776    0.4188     H
  O324    0.3696    0.1855    0.3408     O
  H325    0.3705    0.1446    0.3218     H
  H326    0.3911    0.1623    0.3638     H
  O327    0.5332    0.7205    0.2647     O
  H328    0.4805    0.7073    0.2714     H
  H329    0.5646    0.6878    0.2811     H
  O330    0.3761    0.5664    0.3418     O
  H331    0.4297    0.5552    0.3474     H
  H332    0.3780    0.6060    0.3220     H
  O333    0.3774    0.1787    0.0338     O
  H334    0.4304    0.1913    0.0276     H
  H335    0.3563    0.2259    0.0444     H
  O336    0.8175    0.1274    0.4107     O
  H337    0.8387    0.1063    0.3870     H
  H338    0.8051    0.1804    0.4044     H
  O339    0.7205    0.0295    0.0166     O
  H340    0.7073    0.0427   -0.0097     H
  H341    0.6878    0.0622    0.0323     H
  O342    0.2155    0.5305    0.0173     O
  H343    0.2064    0.5442   -0.0095     H
  H344    0.2689    0.5442    0.0218     H
  O345    0.3821    0.6802    0.2849     O
  H346    0.3562    0.7273    0.2926     H
  H347    0.3562    0.6648    0.2613     H
  O348    0.5645    0.1815    0.4402     O
  H349    0.6054    0.1435    0.4398     H
  H350    0.5877    0.2276    0.4295     H
  O351    0.0295    0.2205    0.2666     O
  H352    0.0427    0.2073    0.2403     H
  H353    0.0622    0.1878    0.2823     H
  O354    0.7845    0.7805    0.1423     O
  H355    0.7936    0.7942    0.1155     H
  H356    0.7311    0.7942    0.1468     H
  O357    0.5664    0.0664    0.1869     O
  H358    0.5552    0.0552    0.1601     H
  H359    0.6060    0.1060    0.1860     H
  O360    0.4336    0.6239    0.1582     O
  H361    0.3940    0.6220    0.1780     H
  H362    0.4448    0.5703    0.1526     H
  O363    0.5698    0.8821    0.0901     O
  H364    0.5852    0.8562    0.1137     H
  H365    0.5227    0.8562    0.0824     H
  O366    0.6304    0.8185    0.1572     O
  H367    0.6089    0.7724    0.1688     H
  H368    0.6295    0.8565    0.1777     H
  O369    0.5698    0.5698    0.4340     O
  H370    0.5852    0.5227    0.4469     H
  H371    0.5227    0.5852    0.4469     H
  O372    0.8804    0.5645    0.0908     O
  H373    0.8589    0.5877    0.1138     H
  H374    0.8795    0.6054    0.0718     H
  O375    0.0332    0.5295    0.1103     O
  H376   -0.0195    0.5427    0.1036     H
  H377    0.0646    0.5622    0.0939     H
  O378    0.8145    0.3185    0.3152     O
  H379    0.8377    0.2724    0.3045     H
  H380    0.8554    0.3565    0.3148     H
  O381    0.6239    0.3164    0.2168     O
  H382    0.6220    0.3560    0.1970     H
  H383    0.5703    0.3052    0.2224     H
  O384    0.1250    0.1250    0.3106     O
  H385    0.1563    0.1563    0.3277     H
  H386    0.0937    0.0937    0.3277     H
  O387    0.1836    0.3761    0.0332     O
  H388    0.1948    0.4297    0.0276     H
  H389    0.1440    0.3780    0.0530     H
  O390    0.3164    0.8164    0.3131     O
  H391    0.3560    0.8560    0.3140     H
  H392    0.3052    0.8052    0.3399     H
  O393    0.1196    0.8185    0.2178     O
  H394    0.1411    0.7724    0.2062     H
  H395    0.1205    0.8565    0.1973     H
  O396    0.7795    0.2795    0.3916     O
  H397    0.7927    0.2927    0.3653     H
  H398    0.8122    0.3122    0.4073     H
  O399    0.6836    0.5664    0.1881     O
  H400    0.6440    0.6060    0.1890     H
  H401    0.6948    0.5552    0.2149     H
  O402    0.5675    0.8726    0.7857     O
  H403    0.5887    0.8937    0.7620     H
  H404    0.5551    0.8196    0.7794     H
  O405    0.6802    0.3679    0.5901     O
  H406    0.7273    0.3938    0.5824     H
  H407    0.6648    0.3938    0.6137     H
  O408    0.3164    0.9336    0.5619     O
  H409    0.3052    0.9448    0.5351     H
  H410    0.3560    0.8940    0.5610     H
  O411    0.9325    0.6274    0.7143     O
  H412    0.9449    0.6804    0.7206     H
  H413    0.9113    0.6063    0.7380     H
  O414    0.9302    0.9302    0.5660     O
  H415    0.9773    0.9148    0.5531     H
  H416    0.9148    0.9773    0.5531     H
  O417    0.3726    0.6787    0.5912     O
  H418    0.3196    0.6913    0.5974     H
  H419    0.3937    0.7259    0.5806     H
  O420    0.3164    0.6239    0.7168     O
  H421    0.3052    0.5703    0.7224     H
  H422    0.3560    0.6220    0.6970     H
  O423    0.8145    0.4315    0.5598     O
  H424    0.8377    0.4776    0.5705     H
  H425    0.8554    0.3935    0.5602     H
  O426    0.8750    0.3750    0.9356     O
  H427    0.8437    0.4063    0.9527     H
  H428    0.9063    0.3437    0.9527     H
  O429    0.3198    0.6321    0.9099     O
  H430    0.3352    0.6062    0.8863     H
  H431    0.2727    0.6062    0.9176     H
  O432    0.4336    0.1239    0.9082     O
  H433    0.3940    0.1220    0.9280     H
  H434    0.4448    0.0703    0.9026     H
  O435    0.2168    0.2205    0.8603     O
  H436    0.2695    0.2073    0.8536     H
  H437    0.1854    0.1878    0.8439     H
  O438    0.6261    0.4336    0.9668     O
  H439    0.6797    0.4448    0.9724     H
  H440    0.6280    0.3940    0.9470     H
  O441    0.6226    0.4287    0.6588     O
  H442    0.5696    0.4413    0.6526     H
  H443    0.6437    0.4759    0.6694     H
  O444    0.1261    0.8164    0.9082     O
  H445    0.1797    0.8052    0.9026     H
  H446    0.1280    0.8560    0.9280     H
  O447    0.2795    0.7832    0.8897     O
  H448    0.2927    0.7305    0.8964     H
  H449    0.3122    0.8146    0.9061     H
  O450    0.4315    0.4355    0.5652     O
  H451    0.3935    0.3946    0.5648     H
  H452    0.4776    0.4123    0.5545     H
  O453    0.2168    0.0295    0.7647     O
  H454    0.2695    0.0427    0.7714     H
  H455    0.1854    0.0622    0.7811     H
  O456    0.6196    0.8145    0.9658     O
  H457    0.6205    0.8554    0.9468     H
  H458    0.6411    0.8377    0.9888     H
  O459    0.1787    0.8774    0.7838     O
  H460    0.2259    0.8563    0.7944     H
  H461    0.1913    0.9304    0.7776     H
  O462    0.1825    0.0713    0.6887     O
  H463    0.1949    0.0587    0.7152     H
  H464    0.1613    0.0241    0.6782     H
  O465    0.4705    0.4705    0.6416     O
  H466    0.4378    0.4378    0.6573     H
  H467    0.4573    0.4573    0.6153     H
  O468    0.9287    0.1226    0.6588     O
  H469    0.9413    0.0696    0.6526     H
  H470    0.9759    0.1437    0.6694     H
  O471    0.8750    0.8750    0.6894     O
  H472    0.8437    0.8437    0.6723     H
  H473    0.9063    0.9063    0.6723     H
  O474    0.1304    0.4315    0.7178     O
  H475    0.1089    0.4776    0.7062     H
  H476    0.1295    0.3935    0.6973     H
  O477    0.1787    0.8726    0.5912     O
  H478    0.1913    0.8196    0.5974     H
  H479    0.2259    0.8937    0.5806     H
  O480    0.4315    0.9355    0.8152     O
  H481    0.4776    0.9123    0.8045     H
  H482    0.3935    0.8946    0.8148     H
  O483    0.1226    0.3175    0.9643     O
  H484    0.0696    0.3051    0.9706     H
  H485    0.1437    0.3387    0.9880     H
  O486    0.6815    0.0645    0.9402     O
  H487    0.7276    0.0877    0.9295     H
  H488    0.6435    0.1054    0.9398     H
  O489    0.8145    0.8185    0.5652     O
  H490    0.8554    0.8565    0.5648     H
  H491    0.8377    0.7724    0.5545     H
  O492    0.8774    0.0713    0.8412     O
  H493    0.9304    0.0587    0.8474     H
  H494    0.8563    0.0241    0.8306     H
  O495    0.9655    0.9695    0.6423     O
  H496    1.0189    0.9558    0.6468     H
  H497    0.9564    0.9558    0.6155     H
  O498    0.0698    0.6802    0.9410     O
  H499    0.0852    0.7273    0.9281     H
  H500    0.0227    0.6648    0.9281     H
  O501    0.7155    0.7155    0.8597     O
  H502    0.7064    0.7689    0.8529     H
  H503    0.7689    0.7064    0.8529     H
  O504    0.8726    0.1825    0.5893     O
  H505    0.8937    0.1613    0.6130     H
  H506    0.8196    0.1949    0.5956     H
  O507    0.5345    0.5305    0.8577     O
  H508    0.4811    0.5442    0.8532     H
  H509    0.5436    0.5442    0.8845     H
  O510    0.6855    0.8696    0.8408     O
  H511    0.6446    0.8705    0.8218     H
  H512    0.6623    0.8911    0.8638     H
  O513    0.0645    0.8804    0.8408     O
  H514    0.1054    0.8795    0.8218     H
  H515    0.0877    0.8589    0.8638     H
  O516    0.5664    0.3761    0.8418     O
  H517    0.5552    0.4297    0.8474     H
  H518    0.6060    0.3780    0.8220     H
  O519    0.3213    0.3175    0.5637     O
  H520    0.3087    0.3051    0.5902     H
  H521    0.2741    0.3387    0.5532     H
  O522    0.3185    0.1304    0.6572     O
  H523    0.2724    0.1089    0.6688     H
  H524    0.3565    0.1295    0.6777     H
  O525    0.1196    0.4355    0.9092     O
  H526    0.1411    0.4123    0.8862     H
  H527    0.1205    0.3946    0.9282     H
  O528    0.8696    0.0645    0.5342     O
  H529    0.8705    0.1054    0.5532     H
  H530    0.8911    0.0877    0.5112     H
  O531    0.0685    0.0645    0.9348     O
  H532    0.1065    0.1054    0.9352     H
  H533    0.0224    0.0877    0.9455     H
  O534    0.8804    0.1855    0.7842     O
  H535    0.8589    0.1623    0.7612     H
  H536    0.8795    0.1446    0.8032     H
  O537    0.2845    0.2845    0.6403     O
  H538    0.2936    0.2311    0.6471     H
  H539    0.2311    0.2936    0.6471     H
  O540    0.3696    0.5685    0.5322     O
  H541    0.3705    0.6065    0.5527     H
  H542    0.3911    0.5224    0.5438     H
  O543    0.1250    0.6250    0.5644     O
  H544    0.0937    0.6563    0.5473     H
  H545    0.1563    0.5937    0.5473     H
  O546    0.8679    0.6802    0.8401     O
  H547    0.8938    0.7273    0.8324     H
  H548    0.8938    0.6648    0.8637     H
  O549    0.9668    0.4705    0.8897     O
  H550    0.9354    0.4378    0.9061     H
  H551    1.0195    0.4573    0.8964     H
  O552    0.6825    0.6787    0.9363     O
  H553    0.6613    0.7259    0.9468     H
  H554    0.6949    0.6913    0.9098     H
  O555    0.6825    0.3774    0.7857     O
  H556    0.6949    0.4304    0.7794     H
  H557    0.6613    0.3563    0.7620     H
  O558    0.4655    0.7845    0.9847     O
  H559    0.5189    0.7936    0.9779     H
  H560    0.4564    0.7311    0.9779     H
  O561    0.0664    0.1836    0.6881     O
  H562    0.1060    0.1440    0.6890     H
  H563    0.0552    0.1948    0.7149     H
  O564    0.3185    0.4355    0.8098     O
  H565    0.3565    0.3946    0.8102     H
  H566    0.2724    0.4123    0.8205     H
  O567    0.4315    0.6304    0.9678     O
  H568    0.3935    0.6295    0.9473     H
  H569    0.4776    0.6089    0.9562     H
  O570    0.5345    0.2195    0.5173     O
  H571    0.4811    0.2058    0.5218     H
  H572    0.5436    0.2058    0.4905     H
  O573    0.6261    0.9336    0.7168     O
  H574    0.6797    0.9448    0.7224     H
  H575    0.6280    0.8940    0.6970     H
  O576    0.4287    0.8175    0.5613     O
  H577    0.4413    0.8051    0.5348     H
  H578    0.4759    0.8387    0.5718     H
  O579    0.7195    0.2155    0.6077     O
  H580    0.7058    0.2064    0.6345     H
  H581    0.7058    0.2689    0.6032     H
  O582    0.5664    0.3739    0.5332     O
  H583    0.6060    0.3720    0.5530     H
  H584    0.5552    0.3203    0.5276     H
  O585    0.1802    0.6802    0.6840     O
  H586    0.2273    0.6648    0.6969     H
  H587    0.1648    0.7273    0.6969     H
  O588    0.6855    0.1815    0.6848     O
  H589    0.6623    0.2276    0.6955     H
  H590    0.6446    0.1435    0.6852     H
  O591    0.0713    0.3774    0.5912     O
  H592    0.0241    0.3563    0.5806     H
  H593    0.0587    0.4304    0.5974     H
  O594    0.9325    0.3213    0.5613     O
  H595    0.9449    0.3087    0.5348     H
  H596    0.9113    0.2741    0.5718     H
  O597    0.0685    0.5645    0.6848     O
  H598    0.0224    0.5877    0.6955     H
  H599    0.1065    0.6054    0.6852     H
  O600    0.9695    0.2845    0.9827     O
  H601    0.9558    0.2311    0.9782     H
  H602    0.9558    0.2936    1.0095     H
  O603    0.5332    0.0295    0.6103     O
  H604    0.4805    0.0427    0.6036     H
  H605    0.5646    0.0622    0.5939     H
  O606    0.8185    0.6304    0.6572     O
  H607    0.7724    0.6089    0.6688     H
  H608    0.8565    0.6295    0.6777     H
  O609    0.3679    0.0698    0.7849     O
  H610    0.3938    0.0227    0.7926     H
  H611    0.3938    0.0852    0.7613     H
  O612    0.1321    0.3198    0.6599     O
  H613    0.1062    0.3352    0.6363     H
  H614    0.1062    0.2727    0.6676     H
  O615    0.8696    0.5685    0.7822     O
  H616    0.8705    0.6065    0.8027     H
  H617    0.8911    0.5224    0.7938     H
  O618    0.9355    0.1304    0.9658     O
  H619    0.9123    0.1089    0.9888     H
  H620    0.8946    0.1295    0.9468     H
  O621    0.3788    0.3750    0.6875     O
  H622    0.3446    0.4063    0.7031     H
  H623    0.3446    0.3437    0.6719     H
  O624    0.2805    0.9655    0.9827     O
  H625    0.2942    1.0189    0.9782     H
  H626    0.2942    0.9564    1.0095     H
  O627    0.1836    0.3739    0.8418     O
  H628    0.1948    0.3203    0.8474     H
  H629    0.1440    0.3720    0.8220     H
  O630    0.8213    0.9325    0.8113     O
  H631    0.8087    0.9449    0.7848     H
  H632    0.7741    0.9113    0.8218     H
  O633    0.3750    0.8750    0.9356     O
  H634    0.3437    0.9063    0.9527     H
  H635    0.4063    0.8437    0.9527     H
  O636    0.8198    0.6179    0.9651     O
  H637    0.8352    0.6438    0.9887     H
  H638    0.7727    0.6438    0.9574     H
  O639    0.6250    0.1212    0.5625     O
  H640    0.5937    0.1554    0.5469     H
  H641    0.6563    0.1554    0.5781     H
  O642    0.6250    0.6250    0.8106     O
  H643    0.5937    0.5937    0.8277     H
  H644    0.6563    0.6563    0.8277     H
  O645    0.1855    0.5685    0.9402     O
  H646    0.1446    0.6065    0.9398     H
  H647    0.1623    0.5224    0.9295     H
  O648    0.5698    0.6802    0.6910     O
  H649    0.5227    0.6648    0.6781     H
  H650    0.5852    0.7273    0.6781     H
  O651    0.7795    0.9668    0.7353     O
  H652    0.7927    1.0195    0.7286     H
  H653    0.8122    0.9354    0.7189     H
  O654    0.1196    0.9355    0.6592     O
  H655    0.1205    0.8946    0.6782     H
  H656    0.1411    0.9123    0.6362     H
  O657    0.1825    0.1787    0.9363     O
  H658    0.1949    0.1913    0.9098     H
  H659    0.1613    0.2259    0.9468     H
  O660    0.3821    0.0698    0.5901     O
  H661    0.3562    0.0852    0.6137     H
  H662    0.3562    0.0227    0.5824     H
  O663    0.8804    0.6855    0.5342     O
  H664    0.8589    0.6623    0.5112     H
  H665    0.8795    0.6446    0.5532     H
  O666    0.7805    0.4655    0.9827     O
  H667    0.7942    0.4564    1.0095     H
  H668    0.7942    0.5189    0.9782     H
  O669    0.7168    0.5295    0.7647     O
  H670    0.6854    0.5622    0.7811     H
  H671    0.7695    0.5427    0.7714     H
  O672    0.9336    0.6239    0.9082     O
  H673    0.9448    0.5703    0.9026     H
  H674    0.8940    0.6220    0.9280     H
  O675    0.0698    0.3679    0.7849     O
  H676    0.0852    0.3938    0.7613     H
  H677    0.0227    0.3938    0.7926     H
  O678    0.2205    0.7205    0.6084     O
  H679    0.2073    0.7073    0.6347     H
  H680    0.1878    0.6878    0.5927     H
  O681    0.6787    0.8774    0.5338     O
  H682    0.7259    0.8563    0.5444     H
  H683    0.6913    0.9304    0.5276     H
  O684    0.8185    0.1196    0.7178     O
  H685    0.7724    0.1411    0.7062     H
  H686    0.8565    0.1205    0.6973     H
  O687    0.9705    0.7795    0.7334     O
  H688    0.9378    0.8122    0.7177     H
  H689    0.9573    0.7927    0.7597     H
  O690    0.6274    0.3175    0.9107     O
  H691    0.6063    0.3387    0.8870     H
  H692    0.6804    0.3051    0.9044     H
  O693    0.4302    0.3198    0.8090     O
  H694    0.4773    0.3352    0.8219     H
  H695    0.4148    0.2727    0.8219     H
  O696    0.3198    0.1179    0.9651     O
  H697    0.3352    0.1438    0.9887     H
  H698    0.2727    0.1438    0.9574     H
  O699    0.4705    0.2795    0.7334     O
  H700    0.4378    0.3122    0.7177     H
  H701    0.4573    0.2927    0.7597     H
  O702    0.1274    0.9287    0.9662     O
  H703    0.1804    0.9413    0.9724     H
  H704    0.1063    0.9759    0.9556     H
  O705    0.0345    0.7195    0.5173     O
  H706    0.0436    0.7058    0.4905     H
  H707   -0.0189    0.7058    0.5218     H
  O708    0.0664    0.8739    0.5332     O
  H709    0.1060    0.8720    0.5530     H
  H710    0.0552    0.8203    0.5276     H
  O711    0.4705    0.9705    0.8916     O
  H712    0.4378    0.9378    0.9073     H
  H713    0.4573    0.9573    0.8653     H
  O714    0.0305    0.0345    0.8577     O
  H715    0.0442    0.0436    0.8845     H
  H716    0.0442   -0.0189    0.8532     H
  O717    0.9336    0.4336    0.8131     O
  H718    0.8940    0.3940    0.8140     H
  H719    0.9448    0.4448    0.8399     H
  O720    0.4287    0.1274    0.7162     O
  H721    0.4413    0.1804    0.7224     H
  H722    0.4759    0.1063    0.7056     H
  O723    0.9315    0.8145    0.8098     O
  H724    0.8935    0.8554    0.8102     H
  H725    0.9776    0.8377    0.8205     H
  O726    0.2845    0.4695    0.7327     O
  H727    0.2311    0.4558    0.7282     H
  H728    0.2936    0.4558    0.7595     H
  O729    0.6226    0.9287    0.9088     O
  H730    0.5696    0.9413    0.9026     H
  H731    0.6437    0.9759    0.9194     H
  O732    0.3696    0.1855    0.8408     O
  H733    0.3911    0.1623    0.8638     H
  H734    0.3705    0.1446    0.8218     H
  O735    0.5295    0.7205    0.7666     O
  H736    0.5622    0.6878    0.7823     H
  H737    0.5427    0.7073    0.7403     H
  O738    0.3804    0.5685    0.8428     O
  H739    0.3795    0.6065    0.8223     H
  H740    0.3589    0.5224    0.8312     H
  O741    0.3804    0.1815    0.5322     O
  H742    0.3795    0.1435    0.5527     H
  H743    0.3589    0.2276    0.5438     H
  O744    0.8175    0.1274    0.9107     O
  H745    0.8051    0.1804    0.9044     H
  H746    0.8387    0.1063    0.8870     H
  O747    0.7168    0.0295    0.5147     O
  H748    0.6854    0.0622    0.5311     H
  H749    0.7695    0.0427    0.5214     H
  O750    0.2155    0.5345    0.5153     O
  H751    0.2064    0.4811    0.5221     H
  H752    0.2689    0.5436    0.5221     H
  O753    0.3774    0.6825    0.7857     O
  H754    0.3563    0.6613    0.7620     H
  H755    0.4304    0.6949    0.7794     H
  O756    0.5698    0.1802    0.9410     O
  H757    0.5227    0.1648    0.9281     H
  H758    0.5852    0.2273    0.9281     H
  O759    0.0345    0.2155    0.7653     O
  H760    0.0436    0.2689    0.7721     H
  H761   -0.0189    0.2064    0.7721     H
  O762    0.7805    0.7845    0.6423     O
  H763    0.7942    0.7936    0.6155     H
  H764    0.7942    0.7311    0.6468     H
  O765    0.5675    0.0713    0.6863     O
  H766    0.5551    0.0587    0.6598     H
  H767    0.5887    0.0241    0.6968     H
  O768    0.4325    0.6226    0.6607     O
  H769    0.4113    0.6437    0.6370     H
  H770    0.4449    0.5696    0.6544     H
  O771    0.5664    0.8761    0.5918     O
  H772    0.5552    0.9297    0.5974     H
  H773    0.6060    0.8780    0.5720     H
  O774    0.6274    0.8175    0.6607     O
  H775    0.6804    0.8051    0.6544     H
  H776    0.6063    0.8387    0.6370     H
  O777    0.5645    0.5685    0.9348     O
  H778    0.6054    0.6065    0.9352     H
  H779    0.5877    0.5224    0.9455     H
  O780    0.8774    0.5675    0.5893     O
  H781    0.8563    0.5887    0.6130     H
  H782    0.9304    0.5551    0.5956     H
  O783    0.0295    0.5295    0.6084     O
  H784    0.0622    0.5622    0.5927     H
  H785    0.0427    0.5427    0.6347     H
  O786    0.8198    0.3198    0.8160     O
  H787    0.8352    0.2727    0.8031     H
  H788    0.7727    0.3352    0.8031     H
  O789    0.6239    0.3164    0.7168     O
  H790    0.5703    0.3052    0.7224     H
  H791    0.6220    0.3560    0.6970     H
  O792    0.1288    0.1250    0.8125     O
  H793    0.0946    0.1563    0.7969     H
  H794    0.0946    0.0937    0.8281     H
  O795    0.1855    0.3804    0.5342     O
  H796    0.1623    0.3589    0.5112     H
  H797    0.1446    0.3795    0.5532     H
  O798    0.3175    0.8213    0.8137     O
  H799    0.3051    0.8087    0.8402     H
  H800    0.3387    0.7741    0.8032     H
  O801    0.1226    0.8175    0.7143     O
  H802    0.0696    0.8051    0.7206     H
  H803    0.1437    0.8387    0.7380     H
  O804    0.7795    0.2795    0.8916     O
  H805    0.8122    0.3122    0.9073     H
  H806    0.7927    0.2927    0.8653     H
  O807    0.6836    0.5664    0.6881     O
  H808    0.6948    0.5552    0.7149     H
  H809    0.6440    0.6060    0.6890     H
 Cl810    0.6820    0.3708    0.0910    Cl
 Na811    0.5680    0.8708    0.2840    Na

